# NWT package for MODFLOW-NWT generated by Flopy 3.3.5
 1.000e-03 5.000e+02      1000 1.000e-05         1         0         0   COMPLEX
