# DRN package for MODFLOW-NWT generated by Flopy 3.3.5
     35126         0
     35126         0 # stress period 1
         1         1         1          -10.65         48600.0
         1         1         2          -10.65         48600.0
         1         1         3          -10.24         48600.0
         1         1         4          -10.04         48600.0
         1         1         5          -10.29         48600.0
         1         1         6          -11.46         48600.0
         1         1         7          -12.08         48600.0
         1         1         8          -12.08         48600.0
         1         1         9          -12.33         48600.0
         1         1        10           -12.5         48600.0
         1         1        11          -10.51         48600.0
         1         1        12          -11.35         48600.0
         1         1        13          -12.42         48600.0
         1         1        14          -12.42         48600.0
         1         1        15           -13.0         48600.0
         1         1        16           -12.7         48600.0
         1         1        17          -12.91         48600.0
         1         1        18          -12.94         48600.0
         1         1        19          -12.89         48600.0
         1         1        20          -12.89         48600.0
         1         1        21          -12.97         48600.0
         1         1        22          -13.02         48600.0
         1         1        23          -12.95         48600.0
         1         1        24          -12.91         48600.0
         1         1        25          -12.91         48600.0
         1         1        26          -12.92         48600.0
         1         1        27          -13.02         48600.0
         1         1        28           -13.0         48600.0
         1         1        29          -12.93         48600.0
         1         1        30          -12.83         48600.0
         1         1        31          -12.83         48600.0
         1         1        32          -12.67         48600.0
         1         1        33          -11.93         48600.0
         1         1        34          -11.35         48600.0
         1         1        35          -10.72         48600.0
         1         1        36          -10.06         48600.0
         1         1        37          -10.06         48600.0
         1         1        38           -8.73         48600.0
         1         1        39           -8.06         48600.0
         1         1        40           -7.39         48600.0
         1         1        41           -6.85         48600.0
         1         1        42            -6.0         48600.0
         1         1        43            -6.0         48600.0
         1         1        44           -5.73         48600.0
         1         1        45           -5.56         48600.0
         1         1        46           -5.45         48600.0
         1         1        47           -5.27         48600.0
         1         1        48           -5.27         48600.0
         1         1        49           -5.16         48600.0
         1         1        50           -5.01         48600.0
         1         1        51           -4.85         48600.0
         1         1        52           -4.46         48600.0
         1         1        53           -4.25         48600.0
         1         1        54           -4.25         48600.0
         1         1        55           -4.02         48600.0
         1         1        56           -3.79         48600.0
         1         1        57           -3.55         48600.0
         1         1        58           -3.16         48600.0
         1         1        59           -3.03         48600.0
         1         1        60           -3.03         48600.0
         1         1        61           -2.92         48600.0
         1         1        62           -2.84         48600.0
         1         1        63           -2.66         48600.0
         1         1        64           -2.47         48600.0
         1         1        65           -2.15         48600.0
         1         1        66           -2.15         48600.0
         1         1        67            -1.8         48600.0
         1         1        68           -0.73         48600.0
         1         1        69           -0.11         48600.0
         1         1        70            0.43         48600.0
         1         1        71            0.44         48600.0
         1         1        72            0.44         48600.0
         1         1        73            3.44         48600.0
         1         1        74            4.45         48600.0
         1         1        75            9.45         48600.0
         1         1        76           11.35         48600.0
         1         1        77           11.76         48600.0
         1         1        78            7.48         48600.0
         1         1        79            7.23         48600.0
         1         1        80            8.72         48600.0
         1         1        81           10.35         48600.0
         1         1        82           10.27         48600.0
         1         1        83           11.01         48600.0
         1         1        84            7.98         48600.0
         1         1        85             7.8         48600.0
         1         1        86            7.94         48600.0
         1         1        87            8.13         48600.0
         1         1        88            8.67         48600.0
         1         1        89            8.73         48600.0
         1         1        90            8.86         48600.0
         1         1        91            7.96         48600.0
         1         1        92            8.52         48600.0
         1         1        93            8.93         48600.0
         1         1        94            9.64         48600.0
         1         1        95           10.26         48600.0
         1         1        96           11.06         48600.0
         1         1        97           11.88         48600.0
         1         1        98           12.44         48600.0
         1         1        99           12.57         48600.0
         1         1       100           13.64         48600.0
         1         1       101            14.3         48600.0
         1         1       102           16.99         48600.0
         1         1       103            20.0         48600.0
         1         1       104            22.5         48600.0
         1         1       105            24.9         48600.0
         1         1       106            26.6         48600.0
         1         1       107            27.0         48600.0
         1         1       108            26.4         48600.0
         1         1       109            25.6         48600.0
         1         1       110            25.0         48600.0
         1         1       111            24.7         48600.0
         1         1       112            25.9         48600.0
         1         1       113            28.4         48600.0
         1         1       114            30.4         48600.0
         1         1       115            32.8         48600.0
         1         1       116            34.4         48600.0
         1         1       117            35.9         48600.0
         1         1       118            38.7         48600.0
         1         1       119            41.1         48600.0
         1         1       120            42.3         48600.0
         1         1       121            42.6         48600.0
         1         1       122            42.7         48600.0
         1         1       123            42.6         48600.0
         1         1       124            42.2         48600.0
         1         1       125            41.8         48600.0
         1         1       126            42.4         48600.0
         1         1       127            43.0         48600.0
         1         1       128            44.1         48600.0
         1         1       129            45.1         48600.0
         1         1       130            45.9         48600.0
         1         1       131            48.0         48600.0
         1         1       132            49.7         48600.0
         1         1       133            51.8         48600.0
         1         1       134            54.4         48600.0
         1         1       135            56.3         48600.0
         1         1       136            57.2         48600.0
         1         1       137            57.5         48600.0
         1         1       138            57.5         48600.0
         1         1       139            57.6         48600.0
         1         1       140            58.1         48600.0
         1         1       141            59.3         48600.0
         1         1       142            60.0         48600.0
         1         1       143            59.1         48600.0
         1         1       144            58.0         48600.0
         1         1       145            57.9         48600.0
         1         1       146            58.2         48600.0
         1         1       147            59.4         48600.0
         1         1       148            59.9         48600.0
         1         1       149            57.6         48600.0
         1         1       150            55.7         48600.0
         1         1       151            54.0         48600.0
         1         1       152            51.5         48600.0
         1         1       153            49.9         48600.0
         1         1       154            49.9         48600.0
         1         1       155            49.7         48600.0
         1         1       156            48.6         48600.0
         1         1       157            47.4         48600.0
         1         1       158            45.7         48600.0
         1         1       159            42.5         48600.0
         1         1       160            40.5         48600.0
         1         1       161            36.2         48600.0
         1         1       162            37.1         48600.0
         1         1       163            35.7         48600.0
         1         1       164            33.6         48600.0
         1         1       165            34.6         48600.0
         1         1       166            36.1         48600.0
         1         1       167            35.7         48600.0
         1         1       168            34.4         48600.0
         1         1       169            32.9         48600.0
         1         1       170            31.1         48600.0
         1         1       171            28.6         48600.0
         1         1       172            26.2         48600.0
         1         1       173            23.8         48600.0
         1         1       174            20.8         48600.0
         1         1       175            18.2         48600.0
         1         1       176            16.9         48600.0
         1         1       177            18.8         48600.0
         1         1       178            21.7         48600.0
         1         1       179            21.5         48600.0
         1         1       180            19.2         48600.0
         1         1       181            16.4         48600.0
         1         1       182            13.2         48600.0
         1         1       183            11.6         48600.0
         1         1       184            12.4         48600.0
         1         1       185            17.5         48600.0
         1         1       186            26.0         48600.0
         1         1       187            32.2         48600.0
         1         1       188            34.9         48600.0
         1         1       189            36.8         48600.0
         1         1       190            38.9         48600.0
         1         1       191            40.9         48600.0
         1         1       192            42.1         48600.0
         1         1       193            43.8         48600.0
         1         2         1          -10.43         48600.0
         1         2         2          -10.43         48600.0
         1         2         3           -9.88         48600.0
         1         2         4           -9.49         48600.0
         1         2         5           -9.79         48600.0
         1         2         6           -11.2         48600.0
         1         2         7          -12.17         48600.0
         1         2         8          -12.17         48600.0
         1         2         9          -12.84         48600.0
         1         2        10           -12.5         48600.0
         1         2        11          -10.59         48600.0
         1         2        12          -11.35         48600.0
         1         2        13          -12.42         48600.0
         1         2        14          -12.42         48600.0
         1         2        15           -13.4         48600.0
         1         2        16           -13.1         48600.0
         1         2        17          -13.06         48600.0
         1         2        18          -13.19         48600.0
         1         2        19          -13.09         48600.0
         1         2        20          -13.09         48600.0
         1         2        21          -13.02         48600.0
         1         2        22          -12.93         48600.0
         1         2        23          -12.88         48600.0
         1         2        24          -12.85         48600.0
         1         2        25          -12.85         48600.0
         1         2        26          -12.88         48600.0
         1         2        27          -13.04         48600.0
         1         2        28          -13.13         48600.0
         1         2        29          -13.22         48600.0
         1         2        30          -13.29         48600.0
         1         2        31          -13.29         48600.0
         1         2        32          -13.12         48600.0
         1         2        33          -12.63         48600.0
         1         2        34          -11.95         48600.0
         1         2        35          -10.72         48600.0
         1         2        36           -9.39         48600.0
         1         2        37           -9.39         48600.0
         1         2        38           -8.73         48600.0
         1         2        39           -8.06         48600.0
         1         2        40           -7.41         48600.0
         1         2        41           -6.79         48600.0
         1         2        42           -5.77         48600.0
         1         2        43           -5.77         48600.0
         1         2        44           -5.49         48600.0
         1         2        45           -5.33         48600.0
         1         2        46           -5.23         48600.0
         1         2        47           -5.05         48600.0
         1         2        48           -5.05         48600.0
         1         2        49           -4.94         48600.0
         1         2        50            -4.8         48600.0
         1         2        51           -4.64         48600.0
         1         2        52           -4.26         48600.0
         1         2        53           -4.06         48600.0
         1         2        54           -4.06         48600.0
         1         2        55           -3.84         48600.0
         1         2        56           -3.62         48600.0
         1         2        57            -3.2         48600.0
         1         2        58           -3.05         48600.0
         1         2        59           -2.93         48600.0
         1         2        60           -2.93         48600.0
         1         2        61           -2.85         48600.0
         1         2        62           -2.84         48600.0
         1         2        63           -2.66         48600.0
         1         2        64           -2.47         48600.0
         1         2        65           -2.15         48600.0
         1         2        66           -2.15         48600.0
         1         2        67           -1.72         48600.0
         1         2        68           -0.62         48600.0
         1         2        69           -0.03         48600.0
         1         2        70            0.43         48600.0
         1         2        71            0.44         48600.0
         1         2        72            0.44         48600.0
         1         2        73            2.44         48600.0
         1         2        74            4.45         48600.0
         1         2        75            8.45         48600.0
         1         2        76           11.25         48600.0
         1         2        77           11.03         48600.0
         1         2        78            10.0         48600.0
         1         2        79            7.61         48600.0
         1         2        80           10.06         48600.0
         1         2        81            8.31         48600.0
         1         2        82           11.47         48600.0
         1         2        83            7.92         48600.0
         1         2        84             8.0         48600.0
         1         2        85            8.13         48600.0
         1         2        86            8.06         48600.0
         1         2        87            8.22         48600.0
         1         2        88            8.43         48600.0
         1         2        89             8.1         48600.0
         1         2        90            8.35         48600.0
         1         2        91            8.98         48600.0
         1         2        92            9.36         48600.0
         1         2        93            9.18         48600.0
         1         2        94            9.85         48600.0
         1         2        95           10.44         48600.0
         1         2        96           10.93         48600.0
         1         2        97           11.92         48600.0
         1         2        98           12.44         48600.0
         1         2        99           13.15         48600.0
         1         2       100           13.97         48600.0
         1         2       101           15.77         48600.0
         1         2       102           17.39         48600.0
         1         2       103           18.54         48600.0
         1         2       104           22.99         48600.0
         1         2       105            26.0         48600.0
         1         2       106            27.5         48600.0
         1         2       107            26.9         48600.0
         1         2       108            25.6         48600.0
         1         2       109            24.2         48600.0
         1         2       110            24.5         48600.0
         1         2       111            24.9         48600.0
         1         2       112            26.9         48600.0
         1         2       113            29.8         48600.0
         1         2       114            32.3         48600.0
         1         2       115            34.4         48600.0
         1         2       116            37.0         48600.0
         1         2       117            39.3         48600.0
         1         2       118            40.8         48600.0
         1         2       119            41.8         48600.0
         1         2       120            42.2         48600.0
         1         2       121            42.3         48600.0
         1         2       122            41.8         48600.0
         1         2       123            41.4         48600.0
         1         2       124            40.7         48600.0
         1         2       125            39.6         48600.0
         1         2       126            40.9         48600.0
         1         2       127            43.3         48600.0
         1         2       128            45.4         48600.0
         1         2       129            46.9         48600.0
         1         2       130            48.2         48600.0
         1         2       131            49.7         48600.0
         1         2       132            50.8         48600.0
         1         2       133            52.0         48600.0
         1         2       134            54.0         48600.0
         1         2       135            56.0         48600.0
         1         2       136            57.0         48600.0
         1         2       137            57.7         48600.0
         1         2       138            58.2         48600.0
         1         2       139            58.6         48600.0
         1         2       140            59.2         48600.0
         1         2       141            59.9         48600.0
         1         2       142            59.2         48600.0
         1         2       143            58.3         48600.0
         1         2       144            58.2         48600.0
         1         2       145            59.9         48600.0
         1         2       146            60.0         48600.0
         1         2       147            60.0         48600.0
         1         2       148            59.2         48600.0
         1         2       149            56.9         48600.0
         1         2       150            54.4         48600.0
         1         2       151            54.0         48600.0
         1         2       152            52.9         48600.0
         1         2       153            52.0         48600.0
         1         2       154            52.1         48600.0
         1         2       155            52.1         48600.0
         1         2       156            51.0         48600.0
         1         2       157            49.2         48600.0
         1         2       158            46.7         48600.0
         1         2       159            44.5         48600.0
         1         2       160            42.7         48600.0
         1         2       161            41.5         48600.0
         1         2       162            37.1         48600.0
         1         2       163            32.4         48600.0
         1         2       164            30.1         48600.0
         1         2       165            31.4         48600.0
         1         2       166            33.5         48600.0
         1         2       167            33.7         48600.0
         1         2       168            31.3         48600.0
         1         2       169            29.9         48600.0
         1         2       170            29.0         48600.0
         1         2       171            26.5         48600.0
         1         2       172            24.2         48600.0
         1         2       173            20.8         48600.0
         1         2       174            19.3         48600.0
         1         2       175            19.0         48600.0
         1         2       176            19.0         48600.0
         1         2       177            20.8         48600.0
         1         2       178            22.1         48600.0
         1         2       179            22.1         48600.0
         1         2       180            19.4         48600.0
         1         2       181            17.4         48600.0
         1         2       182            14.5         48600.0
         1         2       183            11.9         48600.0
         1         2       184            12.3         48600.0
         1         2       185            16.8         48600.0
         1         2       186            29.2         48600.0
         1         2       187            34.4         48600.0
         1         2       188            36.1         48600.0
         1         2       189            38.1         48600.0
         1         2       190            40.6         48600.0
         1         2       191            42.5         48600.0
         1         2       192            43.5         48600.0
         1         2       193            44.6         48600.0
         1         3         1          -10.37         48600.0
         1         3         2          -10.37         48600.0
         1         3         3           -9.78         48600.0
         1         3         4           -9.38         48600.0
         1         3         5           -9.79         48600.0
         1         3         6           -11.2         48600.0
         1         3         7          -12.17         48600.0
         1         3         8          -12.17         48600.0
         1         3         9          -12.84         48600.0
         1         3        10          -10.12         48600.0
         1         3        11          -10.73         48600.0
         1         3        12          -11.47         48600.0
         1         3        13          -12.29         48600.0
         1         3        14          -12.29         48600.0
         1         3        15          -12.85         48600.0
         1         3        16          -12.92         48600.0
         1         3        17          -12.94         48600.0
         1         3        18          -13.03         48600.0
         1         3        19          -12.98         48600.0
         1         3        20          -12.98         48600.0
         1         3        21          -12.89         48600.0
         1         3        22          -12.74         48600.0
         1         3        23          -12.69         48600.0
         1         3        24          -12.68         48600.0
         1         3        25          -12.68         48600.0
         1         3        26          -12.72         48600.0
         1         3        27          -12.96         48600.0
         1         3        28          -13.14         48600.0
         1         3        29          -13.36         48600.0
         1         3        30          -13.29         48600.0
         1         3        31          -13.29         48600.0
         1         3        32          -13.12         48600.0
         1         3        33          -12.63         48600.0
         1         3        34          -11.95         48600.0
         1         3        35           -11.2         48600.0
         1         3        36           -9.68         48600.0
         1         3        37           -9.68         48600.0
         1         3        38           -8.93         48600.0
         1         3        39           -8.19         48600.0
         1         3        40           -7.45         48600.0
         1         3        41           -6.05         48600.0
         1         3        42            -5.5         48600.0
         1         3        43            -5.5         48600.0
         1         3        44           -5.24         48600.0
         1         3        45            -5.1         48600.0
         1         3        46           -5.02         48600.0
         1         3        47           -4.85         48600.0
         1         3        48           -4.85         48600.0
         1         3        49           -4.74         48600.0
         1         3        50            -4.6         48600.0
         1         3        51           -4.43         48600.0
         1         3        52           -4.06         48600.0
         1         3        53           -3.86         48600.0
         1         3        54           -3.86         48600.0
         1         3        55           -3.66         48600.0
         1         3        56           -3.44         48600.0
         1         3        57            -3.2         48600.0
         1         3        58           -3.05         48600.0
         1         3        59           -2.93         48600.0
         1         3        60           -2.93         48600.0
         1         3        61           -2.85         48600.0
         1         3        62           -2.76         48600.0
         1         3        63           -2.69         48600.0
         1         3        64           -2.51         48600.0
         1         3        65           -2.17         48600.0
         1         3        66           -2.17         48600.0
         1         3        67           -1.19         48600.0
         1         3        68           -0.62         48600.0
         1         3        69           -0.05         48600.0
         1         3        70            0.43         48600.0
         1         3        71            0.44         48600.0
         1         3        72            0.44         48600.0
         1         3        73            2.44         48600.0
         1         3        74            4.45         48600.0
         1         3        75            9.45         48600.0
         1         3        76           11.64         48600.0
         1         3        77           12.03         48600.0
         1         3        78            9.47         48600.0
         1         3        79            9.21         48600.0
         1         3        80           10.11         48600.0
         1         3        81            8.97         48600.0
         1         3        82           10.31         48600.0
         1         3        83            8.39         48600.0
         1         3        84            7.92         48600.0
         1         3        85            8.11         48600.0
         1         3        86            8.27         48600.0
         1         3        87            8.75         48600.0
         1         3        88            8.52         48600.0