# DRN package for MODFLOW-NWT generated by Flopy 3.3.5
     27680         0
     27680         0 # stress period 1
         1         1         1           -4.47        153675.0
         1         1         2           -4.35        153675.0
         1         1         3           -4.34        153675.0
         1         1         4           -4.51        153675.0
         1         1         5           -4.51        153675.0
         1         1         6           -4.51        153675.0
         1         1         7           -4.29        153675.0
         1         1         8           -4.32        153675.0
         1         1         9           -4.22        153675.0
         1         1        10           -4.21        153675.0
         1         1        11           -4.21        153675.0
         1         1        12           -3.81        153675.0
         1         1        13            -3.1        153675.0
         1         1        14           -2.73        153675.0
         1         1        15            -1.6        153675.0
         1         1        16           -1.09        153675.0
         1         1        17           -1.09        153675.0
         1         1        18            0.99        153675.0
         1         1        19            0.99        153675.0
         1         1        20             2.0        153675.0
         1         1        21            3.51        153675.0
         1         1        22            9.01        153675.0
         1         1        23            9.01        153675.0
         1         1        24            7.26        153675.0
         1         1        25            9.68        153675.0
         1         1        26            7.88        153675.0
         1         1        27             7.0        153675.0
         1         1        28            6.75        153675.0
         1         1        29            6.59        153675.0
         1         1        30            6.75        153675.0
         1         1        31            6.19        153675.0
         1         1        32            5.94        153675.0
         1         1        33             7.3        153675.0
         1         1        34            6.05        153675.0
         1         1        35            5.84        153675.0
         1         1        36            6.07        153675.0
         1         1        37            6.21        153675.0
         1         1        38            5.73        153675.0
         1         1        39            6.38        153675.0
         1         1        40            6.53        153675.0
         1         1        41             5.9        153675.0
         1         1        42            6.23        153675.0
         1         1        43            6.34        153675.0
         1         1        44            7.17        153675.0
         1         1        45            7.44        153675.0
         1         1        46            7.86        153675.0
         1         1        47            8.93        153675.0
         1         1        48            9.71        153675.0
         1         1        49           10.19        153675.0
         1         1        50           12.07        153675.0
         1         1        51            12.8        153675.0
         1         1        52            13.4        153675.0
         1         1        53            14.0        153675.0
         1         1        54            14.8        153675.0
         1         1        55            16.6        153675.0
         1         1        56            16.8        153675.0
         1         1        57            19.0        153675.0
         1         1        58            20.4        153675.0
         1         1        59            20.6        153675.0
         1         1        60            20.4        153675.0
         1         1        61            20.6        153675.0
         1         1        62            20.9        153675.0
         1         1        63            22.0        153675.0
         1         1        64            21.5        153675.0
         1         1        65            23.0        153675.0
         1         1        66            25.8        153675.0
         1         1        67            25.5        153675.0
         1         1        68            27.4        153675.0
         1         1        69            29.4        153675.0
         1         1        70            30.5        153675.0
         1         1        71            31.3        153675.0
         1         1        72            31.8        153675.0
         1         1        73            32.4        153675.0
         1         1        74            32.7        153675.0
         1         1        75            33.2        153675.0
         1         1        76            34.3        153675.0
         1         1        77            35.0        153675.0
         1         1        78            35.5        153675.0
         1         1        79            35.8        153675.0
         1         1        80            36.2        153675.0
         1         1        81            36.7        153675.0
         1         1        82            37.1        153675.0
         1         1        83            37.2        153675.0
         1         1        84            37.1        153675.0
         1         1        85            36.6        153675.0
         1         1        86            36.1        153675.0
         1         1        87            35.6        153675.0
         1         1        88            35.7        153675.0
         1         1        89            36.5        153675.0
         1         1        90            37.7        153675.0
         1         1        91            39.0        153675.0
         1         1        92            40.4        153675.0
         1         1        93            42.2        153675.0
         1         1        94            44.0        153675.0
         1         1        95            45.4        153675.0
         1         1        96            47.2        153675.0
         1         1        97            49.4        153675.0
         1         1        98            48.7        153675.0
         1         1        99            50.1        153675.0
         1         1       100            54.2        153675.0
         1         1       101            55.8        153675.0
         1         1       102            57.7        153675.0
         1         1       103            58.8        153675.0
         1         1       104            59.6        153675.0
         1         1       105            61.0        153675.0
         1         1       106            62.1        153675.0
         1         1       107            63.2        153675.0
         1         1       108            65.1        153675.0
         1         1       109            64.8        153675.0
         1         1       110            61.6        153675.0
         1         1       111            64.4        153675.0
         1         1       112            66.2        153675.0
         1         1       113            67.2        153675.0
         1         1       114            67.9        153675.0
         1         1       115            68.9        153675.0
         1         1       116            68.7        153675.0
         1         1       117            65.2        153675.0
         1         1       118            65.8        153675.0
         1         1       119            69.1        153675.0
         1         1       120            69.1        153675.0
         1         1       121            67.5        153675.0
         1         1       122            60.6        153675.0
         1         1       123            57.9        153675.0
         1         1       124            66.2        153675.0
         1         1       125            68.6        153675.0
         1         1       126            71.8        153675.0
         1         1       127            71.9        153675.0
         1         1       128            69.9        153675.0
         1         1       129            69.9        153675.0
         1         1       130            69.0        153675.0
         1         1       131            67.6        153675.0
         1         1       132            67.2        153675.0
         1         1       133            65.5        153675.0
         1         1       134            66.4        153675.0
         1         1       135            67.7        153675.0
         1         1       136            68.5        153675.0
         1         1       137            69.3        153675.0
         1         1       138            71.0        153675.0
         1         1       139            72.7        153675.0
         1         1       140            74.3        153675.0
         1         1       141            76.1        153675.0
         1         1       142            76.9        153675.0
         1         1       143            76.9        153675.0
         1         1       144            77.7        153675.0
         1         1       145            77.9        153675.0
         1         1       146            76.8        153675.0
         1         1       147            74.7        153675.0
         1         1       148            73.2        153675.0
         1         1       149            71.9        153675.0
         1         1       150            67.6        153675.0
         1         1       151            63.5        153675.0
         1         1       152            61.1        153675.0
         1         1       153            58.0        153675.0
         1         1       154            52.5        153675.0
         1         1       155            48.4        153675.0
         1         1       156            52.7        153675.0
         1         1       157            56.9        153675.0
         1         1       158            60.0        153675.0
         1         1       159            60.7        153675.0
         1         1       160            58.4        153675.0
         1         2         1           -3.95        153675.0
         1         2         2           -2.95        153675.0
         1         2         3           -4.44        153675.0
         1         2         4           -4.04        153675.0
         1         2         5           -4.04        153675.0
         1         2         6           -4.04        153675.0
         1         2         7           -4.02        153675.0
         1         2         8           -3.98        153675.0
         1         2         9           -4.22        153675.0
         1         2        10           -4.21        153675.0
         1         2        11           -4.21        153675.0
         1         2        12           -3.81        153675.0
         1         2        13            -3.1        153675.0
         1         2        14           -2.99        153675.0
         1         2        15           -1.19        153675.0
         1         2        16           -1.18        153675.0
         1         2        17           -1.18        153675.0
         1         2        18            0.99        153675.0
         1         2        19             1.0        153675.0
         1         2        20             3.0        153675.0
         1         2        21            5.01        153675.0
         1         2        22           11.97        153675.0
         1         2        23            8.72        153675.0
         1         2        24           16.69        153675.0
         1         2        25            8.48        153675.0
         1         2        26            7.53        153675.0
         1         2        27            7.11        153675.0
         1         2        28            6.57        153675.0
         1         2        29            6.07        153675.0
         1         2        30            6.53        153675.0
         1         2        31            6.53        153675.0
         1         2        32            6.55        153675.0
         1         2        33            6.21        153675.0
         1         2        34            5.25        153675.0
         1         2        35            5.51        153675.0
         1         2        36            5.84        153675.0
         1         2        37            6.03        153675.0
         1         2        38            5.86        153675.0
         1         2        39            6.05        153675.0
         1         2        40            5.63        153675.0
         1         2        41            6.11        153675.0
         1         2        42            6.59        153675.0
         1         2        43            6.96        153675.0
         1         2        44            6.73        153675.0
         1         2        45            7.88        153675.0
         1         2        46            8.63        153675.0
         1         2        47            9.57        153675.0
         1         2        48           10.31        153675.0
         1         2        49           11.69        153675.0
         1         2        50            13.2        153675.0
         1         2        51            14.5        153675.0
         1         2        52            15.4        153675.0
         1         2        53            17.1        153675.0
         1         2        54            18.6        153675.0
         1         2        55            19.8        153675.0
         1         2        56            20.3        153675.0
         1         2        57            22.0        153675.0
         1         2        58            23.0        153675.0
         1         2        59            22.7        153675.0
         1         2        60            22.1        153675.0
         1         2        61            21.8        153675.0
         1         2        62            22.3        153675.0
         1         2        63            23.0        153675.0
         1         2        64            23.0        153675.0
         1         2        65            22.8        153675.0
         1         2        66            25.2        153675.0
         1         2        67            27.2        153675.0
         1         2        68            29.5        153675.0
         1         2        69            30.9        153675.0
         1         2        70            31.2        153675.0
         1         2        71            31.6        153675.0
         1         2        72            32.1        153675.0
         1         2        73            32.5        153675.0
         1         2        74            33.3        153675.0
         1         2        75            34.2        153675.0
         1         2        76            35.2        153675.0
         1         2        77            35.6        153675.0
         1         2        78            35.8        153675.0
         1         2        79            36.3        153675.0
         1         2        80            36.6        153675.0
         1         2        81            37.1        153675.0
         1         2        82            38.0        153675.0
         1         2        83            38.2        153675.0
         1         2        84            37.9        153675.0
         1         2        85            37.4        153675.0
         1         2        86            37.0        153675.0
         1         2        87            37.0        153675.0
         1         2        88            37.3        153675.0
         1         2        89            38.0        153675.0
         1         2        90            38.6        153675.0
         1         2        91            39.2        153675.0
         1         2        92            39.7        153675.0
         1         2        93            41.4        153675.0
         1         2        94            43.8        153675.0
         1         2        95            46.3        153675.0
         1         2        96            48.6        153675.0
         1         2        97            51.0        153675.0
         1         2        98            51.5        153675.0
         1         2        99            51.7        153675.0
         1         2       100            54.1        153675.0
         1         2       101            55.7        153675.0
         1         2       102            56.7        153675.0
         1         2       103            58.4        153675.0
         1         2       104            60.3        153675.0
         1         2       105            61.6        153675.0
         1         2       106            62.8        153675.0
         1         2       107            64.6        153675.0
         1         2       108            66.5        153675.0
         1         2       109            67.1        153675.0
         1         2       110            66.3        153675.0
         1         2       111            64.2        153675.0
         1         2       112            66.3        153675.0
         1         2       113            69.2        153675.0
         1         2       114            70.6        153675.0
         1         2       115            70.8        153675.0
         1         2       116            70.9        153675.0
         1         2       117            67.8        153675.0
         1         2       118            67.1        153675.0
         1         2       119            71.2        153675.0
         1         2       120            71.4        153675.0
         1         2       121            68.3        153675.0
         1         2       122            66.7        153675.0
         1         2       123            62.4        153675.0
         1         2       124            59.3        153675.0
         1         2       125            63.8        153675.0
         1         2       126            69.3        153675.0
         1         2       127            70.5        153675.0
         1         2       128            67.8        153675.0
         1         2       129            65.7        153675.0
         1         2       130            64.6        153675.0
         1         2       131            64.1        153675.0
         1         2       132            65.0        153675.0
         1         2       133            64.9        153675.0
         1         2       134            66.1        153675.0
         1         2       135            66.9        153675.0
         1         2       136            67.7        153675.0
         1         2       137            68.8        153675.0
         1         2       138            70.7        153675.0
         1         2       139            73.3        153675.0
         1         2       140            74.1        153675.0
         1         2       141            75.0        153675.0
         1         2       142            74.9        153675.0
         1         2       143            74.0        153675.0
         1         2       144            73.6        153675.0
         1         2       145            74.8        153675.0
         1         2       146            74.3        153675.0
         1         2       147            72.7        153675.0
         1         2       148            70.6        153675.0
         1         2       149            68.9        153675.0
         1         2       150            65.7        153675.0
         1         2       151            60.7        153675.0
         1         2       152            57.6        153675.0
         1         2       153            54.7        153675.0
         1         2       154            50.6        153675.0
         1         2       155            48.9        153675.0
         1         2       156            53.6        153675.0
         1         2       157            57.5        153675.0
         1         2       158            60.4        153675.0
         1         2       159            61.1        153675.0
         1         2       160            59.5        153675.0
         1         3         1           -4.04        153675.0
         1         3         2           -4.15        153675.0
         1         3         3           -4.26        153675.0
         1         3         4           -4.04        153675.0
         1         3         5           -4.04        153675.0
         1         3         6           -4.04        153675.0
         1         3         7           -4.02        153675.0
         1         3         8           -3.98        153675.0
         1         3         9           -3.92        153675.0
         1         3        10           -3.78        153675.0
         1         3        11           -3.78        153675.0
         1         3        12           -3.43        153675.0
         1         3        13           -2.97        153675.0
         1         3        14            -2.8        153675.0
         1         3        15           -2.07        153675.0
         1         3        16           -2.28        153675.0
         1         3        17           -2.28        153675.0
         1         3        18            0.99        153675.0
         1         3        19             2.0        153675.0
         1         3        20             4.0        153675.0
         1         3        21            6.52        153675.0
         1         3        22           11.76        153675.0
         1         3        23           11.46        153675.0
         1         3        24           14.94        153675.0
         1         3        25            9.56        153675.0
         1         3        26            6.88        153675.0
         1         3        27            6.88        153675.0
         1         3        28            6.63        153675.0
         1         3        29            6.25        153675.0
         1         3        30            6.42        153675.0
         1         3        31             6.5        153675.0
         1         3        32            6.51        153675.0
         1         3        33            4.78        153675.0
         1         3        34            5.71        153675.0
         1         3        35            5.46        153675.0
         1         3        36            5.96        153675.0
         1         3        37            5.78        153675.0
         1         3        38            5.98        153675.0
         1         3        39            5.86        153675.0
         1         3        40            5.15        153675.0
         1         3        41             6.3        153675.0
         1         3        42            6.59        153675.0
         1         3        43            7.32        153675.0
         1         3        44             7.9        153675.0
         1         3        45            8.02        153675.0
         1         3        46            9.84        153675.0
         1         3        47            10.6        153675.0
         1         3        48           11.27        153675.0
         1         3        49           12.69        153675.0
         1         3        50            15.2        153675.0
         1         3        51            17.6        153675.0
         1         3        52            18.9        153675.0
         1         3        53            21.0        153675.0
         1         3        54            22.6        153675.0
         1         3        55            22.9        153675.0
         1         3        56            22.7        153675.0
         1         3        57            23.9        153675.0
         1         3        58            25.2        153675.0
         1         3        59            24.5        153675.0
         1         3        60            23.6        153675.0
         1         3        61            23.3        153675.0
         1         3        62            23.7        153675.0
         1         3        63            24.3        153675.0
         1         3        64            24.8        153675.0
         1         3        65            24.1        153675.0
         1         3        66            25.3        153675.0
         1         3        67            28.0        153675.0
         1         3        68            30.0        153675.0
         1         3        69            30.6        153675.0
         1         3        70            30.3        153675.0
         1         3        71            31.0        153675.0
         1         3        72            31.7        153675.0
         1         3        73            32.9        153675.0
         1         3        74            33.9        153675.0
         1         3        75            34.6        153675.0
         1         3        76            34.9        153675.0
         1         3        77            35.2        153675.0
         1         3        78            36.0        153675.0
         1         3        79            36.6        153675.0
         1         3        80            37.0        153675.0
         1         3        81            37.6        153675.0
         1         3        82            38.6        153675.0
         1         3        83            39.1        153675.0
         1         3        84            38.7        153675.0
         1         3        85            38.2        153675.0
         1         3        86            37.9        153675.0
         1         3        87            38.3        153675.0
         1         3        88            39.0        153675.0
         1         3        89            39.7        153675.0
         1         3        90            39.8        153675.0
         1         3        91            40.0        153675.0
         1         3        92            40.2        153675.0
         1         3        93            40.6        153675.0
         1         3        94            42.9        153675.0
         1         3        95            45.3        153675.0
         1         3        96            49.0        153675.0
         1         3        97            51.6        153675.0
         1         3        98            52.9        153675.0
         1         3        99            54.5        153675.0
         1         3       100            55.4        153675.0
         1         3       101            55.0        153675.0
         1         3       102            55.0        153675.0
         1         3       103            56.4        153675.0
         1         3       104            58.8        153675.0
         1         3       105            60.5        153675.0
         1         3       106            62.0        153675.0
         1         3       107            64.2        153675.0
         1         3       108            66.0        153675.0
         1         3       109            66.7        153675.0
         1         3       110            66.9        153675.0
         1         3       111            66.6        153675.0
         1         3       112            66.9        153675.0
         1         3       113            69.7        153675.0
         1         3       114            71.6        153675.0
         1         3       115            72.2        153675.0
         1         3       116            72.6        153675.0
         1         3       117            70.8        153675.0
         1         3       118            70.1        153675.0
         1         3       119            73.5        153675.0
         1         3       120            73.0        153675.0
         1         3       121            72.5        153675.0
         1         3       122            72.2        153675.0
         1         3       123            69.0        153675.0
         1         3       124            65.2        153675.0
         1         3       125            61.8        153675.0
         1         3       126            60.1        153675.0
         1         3       127            59.6        153675.0
         1         3       128            60.5        153675.0
         1         3       129            61.4        153675.0
         1         3       130            61.7        153675.0
         1         3       131            62.1        153675.0
         1         3       132            62.4        153675.0
         1         3       133            64.0        153675.0
         1         3       134            65.2        153675.0
         1         3       135            66.1        153675.0
         1         3       136            67.6        153675.0
         1         3       137            69.1        153675.0
         1         3       138            71.6        153675.0
         1         3       139            74.1        153675.0
         1         3       140            74.2        153675.0
         1         3       141            74.1        153675.0
         1         3       142            73.9        153675.0
         1         3       143            72.5        153675.0
         1         3       144            71.0        153675.0
         1         3       145            70.7        153675.0
         1         3       146            71.1        153675.0
         1         3       147            70.0        153675.0
         1         3       148            68.0        153675.0
         1         3       149            65.3        153675.0
         1         3       150            61.5        153675.0
         1         3       151            57.8        153675.0
         1         3       152            54.5        153675.0
         1         3       153            51.9        153675.0
         1         3       154            49.2        153675.0