# Name file for MODFLOW-NWT, generated by Flopy version 3.3.5.
#xll:361987.5; yll:6886012.5; rotation:0.0; proj4_str:EPSG:2154; units:meters; lenuni:2; start_datetime:1-1-1970
LIST               2  model_time_0_geo_0_thick_1_K_27.32_Sy_0.1_Step1_site2_Chronicle12_Approx0_Period5000.0.list
NWT               32  model_time_0_geo_0_thick_1_K_27.32_Sy_0.1_Step1_site2_Chronicle12_Approx0_Period5000.0.nwt
DIS               11  model_time_0_geo_0_thick_1_K_27.32_Sy_0.1_Step1_site2_Chronicle12_Approx0_Period5000.0.dis
BAS6              13  model_time_0_geo_0_thick_1_K_27.32_Sy_0.1_Step1_site2_Chronicle12_Approx0_Period5000.0.bas
UPW               31  model_time_0_geo_0_thick_1_K_27.32_Sy_0.1_Step1_site2_Chronicle12_Approx0_Period5000.0.upw
RCH               19  model_time_0_geo_0_thick_1_K_27.32_Sy_0.1_Step1_site2_Chronicle12_Approx0_Period5000.0.rch
DRN               21  model_time_0_geo_0_thick_1_K_27.32_Sy_0.1_Step1_site2_Chronicle12_Approx0_Period5000.0.drn
OC                14  model_time_0_geo_0_thick_1_K_27.32_Sy_0.1_Step1_site2_Chronicle12_Approx0_Period5000.0.oc
DATA(BINARY)      51  model_time_0_geo_0_thick_1_K_27.32_Sy_0.1_Step1_site2_Chronicle12_Approx0_Period5000.0.hds REPLACE
